Version 4
SHEET 1 6124 2336
WIRE 192 -992 -192 -992
WIRE 480 -992 192 -992
WIRE 672 -992 480 -992
WIRE 768 -992 672 -992
WIRE 1344 -992 768 -992
WIRE 1392 -992 1344 -992
WIRE 1536 -992 1392 -992
WIRE 1632 -992 1616 -992
WIRE -192 -976 -192 -992
WIRE 192 -976 192 -992
WIRE 672 -976 672 -992
WIRE 768 -976 768 -992
WIRE -192 -848 -192 -912
WIRE 192 -848 192 -896
WIRE 768 -848 768 -896
WIRE -96 -800 -128 -800
WIRE 128 -800 -96 -800
WIRE 672 -800 672 -896
WIRE 672 -800 288 -800
WIRE 704 -800 672 -800
WIRE 672 -784 672 -800
WIRE 1344 -784 1344 -992
WIRE -192 -704 -192 -752
WIRE -96 -704 -96 -800
WIRE -96 -704 -192 -704
WIRE 672 -704 672 -720
WIRE 768 -704 768 -752
WIRE 768 -704 672 -704
WIRE 1056 -704 768 -704
WIRE 1152 -704 1056 -704
WIRE 1168 -704 1152 -704
WIRE 1296 -704 1248 -704
WIRE -192 -608 -192 -704
WIRE 1152 -592 1152 -704
WIRE 288 -560 288 -800
WIRE 480 -560 480 -992
WIRE 224 -512 96 -512
WIRE 576 -512 544 -512
WIRE 1152 -464 1152 -528
WIRE 288 -416 288 -464
WIRE 480 -416 480 -464
WIRE 768 -416 768 -704
WIRE 960 -416 768 -416
WIRE 1248 -416 1216 -416
WIRE 1344 -416 1344 -688
WIRE 1344 -416 1328 -416
WIRE 768 -400 768 -416
WIRE 960 -368 960 -416
WIRE 288 -320 288 -336
WIRE 480 -320 480 -336
WIRE 480 -320 288 -320
WIRE 896 -320 768 -320
WIRE 1248 -320 1248 -416
WIRE 1344 -320 1344 -416
WIRE 1056 -304 1056 -704
WIRE -80 -224 -96 -224
WIRE 576 -224 576 -512
WIRE 576 -224 0 -224
WIRE 768 -224 768 -320
WIRE 1152 -224 1152 -368
WIRE 1248 -224 1248 -240
WIRE 1248 -224 1152 -224
WIRE 1344 -224 1344 -240
WIRE 1344 -224 1248 -224
WIRE 1536 -224 1344 -224
WIRE 1632 -224 1616 -224
WIRE 1248 -208 1248 -224
WIRE 1344 -208 1344 -224
WIRE -80 -128 -96 -128
WIRE 96 -128 96 -512
WIRE 96 -128 0 -128
WIRE 192 -128 192 -752
WIRE 384 -128 192 -128
WIRE 192 -112 192 -128
WIRE 384 -112 384 -128
WIRE 768 -112 768 -144
WIRE 960 -112 960 -272
WIRE 1152 -80 1152 -224
WIRE 960 -32 960 -48
WIRE 960 -32 768 -32
WIRE 1248 -32 1248 -128
WIRE 1248 -32 1216 -32
WIRE 1344 -32 1344 -128
WIRE 1344 -32 1328 -32
WIRE 192 16 192 -32
WIRE 384 16 384 -32
WIRE 96 64 96 -128
WIRE 128 64 96 64
WIRE 576 64 576 -224
WIRE 576 64 448 64
WIRE 1152 80 1152 16
WIRE 1344 240 1344 -32
WIRE 768 256 768 -32
WIRE 768 256 672 256
WIRE 1056 256 1056 -240
WIRE 1056 256 768 256
WIRE 1152 256 1152 144
WIRE 1152 256 1056 256
WIRE 1168 256 1152 256
WIRE 1296 256 1248 256
WIRE 672 272 672 256
WIRE 768 304 768 256
WIRE -192 352 -192 -528
WIRE -96 352 -192 352
WIRE 192 352 192 112
WIRE 672 352 672 336
WIRE 672 352 192 352
WIRE 704 352 672 352
WIRE -192 400 -192 352
WIRE 480 400 480 -320
WIRE -96 448 -96 352
WIRE -96 448 -128 448
WIRE 416 448 -96 448
WIRE 480 544 480 496
WIRE 672 544 672 352
WIRE 768 544 768 400
WIRE -192 560 -192 496
WIRE -192 640 -192 624
WIRE 384 640 384 112
WIRE 384 640 -192 640
WIRE 480 640 480 624
WIRE 480 640 384 640
WIRE 672 640 672 624
WIRE 672 640 480 640
WIRE 768 640 768 624
WIRE 768 640 672 640
WIRE 1344 640 1344 336
WIRE 1344 640 768 640
WIRE 1536 640 1344 640
WIRE 1632 640 1616 640
FLAG 1632 -992 pvcc
IOPIN 1632 -992 In
FLAG 1632 640 pvee
IOPIN 1632 640 In
FLAG 1632 -224 out
IOPIN 1632 -224 Out
FLAG -96 -128 ninv
IOPIN -96 -128 In
FLAG -96 -224 inv
IOPIN -96 -224 In
FLAG 1392 -992 pvcc_i
FLAG 1248 -224 out_i
SYMBOL pnp 128 112 M180
WINDOW 0 77 84 Left 2
WINDOW 3 75 52 Left 2
SYMATTR InstName Q11
SYMATTR Value CA_BC560C
SYMBOL res 752 -992 R0
SYMATTR InstName R16
SYMATTR Value {rvase}
SYMBOL res 1264 -720 R90
WINDOW 0 0 56 VBottom 2
WINDOW 3 32 56 VTop 2
SYMATTR InstName R27
SYMATTR Value {rdrvb}
SYMBOL res 752 -240 R0
WINDOW 3 36 76 Invisible 2
SYMATTR Value {1+(500*BIAS)}
SYMATTR InstName PBIAS1
SYMBOL res 752 -416 R0
SYMATTR InstName R52
SYMATTR Value 5k6
SYMBOL npn 704 304 R0
SYMATTR InstName Q3
SYMATTR Value 2SC3503F
SYMBOL res 752 528 R0
SYMATTR InstName R6
SYMATTR Value {rvase}
SYMBOL pnp 448 112 R180
WINDOW 0 77 84 Left 2
WINDOW 3 75 52 Left 2
SYMATTR InstName Q7
SYMATTR Value CA_BC560C
SYMBOL npn 896 -368 R0
SYMATTR InstName Q21
SYMATTR Value MJE340
SYMBOL res 752 -128 R0
SYMATTR InstName R37
SYMATTR Value 1k2
SYMBOL res 1328 -336 R0
SYMATTR InstName R14
SYMATTR Value 0.15
SYMBOL res 1328 -224 R0
SYMATTR InstName R21
SYMATTR Value 0.22
SYMBOL ind -96 -112 R270
WINDOW 0 32 56 VTop 2
WINDOW 3 5 56 VBottom 2
SYMATTR InstName L2
SYMATTR Value 15n
SYMATTR SpiceLine Rser=20m
SYMBOL ind -96 -208 R270
WINDOW 0 32 56 VTop 2
WINDOW 3 5 56 VBottom 2
SYMATTR InstName L3
SYMATTR Value 15n
SYMATTR SpiceLine Rser=20m
SYMBOL ind 1520 -208 R270
WINDOW 0 32 56 VTop 2
WINDOW 3 5 56 VBottom 2
SYMATTR InstName L10
SYMATTR Value 10n
SYMATTR SpiceLine Rser=10m
SYMBOL ind 1520 -976 R270
WINDOW 0 32 56 VTop 2
WINDOW 3 5 56 VBottom 2
SYMATTR InstName L9
SYMATTR Value 10n
SYMATTR SpiceLine Rser=10m
SYMBOL ind 1520 656 R270
WINDOW 0 32 56 VTop 2
WINDOW 3 5 56 VBottom 2
SYMATTR InstName L12
SYMATTR Value 10n
SYMATTR SpiceLine Rser=10m
SYMBOL res 1264 240 R90
WINDOW 0 0 56 VBottom 2
WINDOW 3 32 56 VTop 2
SYMATTR InstName R19
SYMATTR Value {rdrvb}
SYMBOL nmos 1296 -784 R0
SYMATTR InstName M1
SYMATTR Value CA_IRFP240C
SYMBOL pmos 1296 336 M180
SYMATTR InstName M2
SYMATTR Value CA_IRFP9240C
SYMBOL diode 944 -112 R0
SYMATTR InstName D6
SYMATTR Value 1N4148
SYMBOL pnp 704 -752 M180
WINDOW 0 77 84 Left 2
WINDOW 3 75 52 Left 2
SYMATTR InstName Q9
SYMATTR Value 2SA1381F
SYMBOL diode 1136 -592 R0
SYMATTR InstName D9
SYMATTR Value BAV21
SYMBOL diode 1136 80 R0
SYMATTR InstName D10
SYMATTR Value BAV21
SYMBOL res 656 528 R0
SYMATTR InstName R1
SYMATTR Value {rvasb}
SYMBOL res 656 -992 R0
SYMATTR InstName R5
SYMATTR Value {rvasb}
SYMBOL cap 1040 -304 R0
SYMATTR InstName C1
SYMATTR Value 22µ
SYMBOL res 176 -128 R0
SYMATTR InstName R4
SYMATTR Value {rltpe}
SYMBOL cap 656 272 R0
SYMATTR InstName C3
SYMATTR Value 33p
SYMBOL cap 656 -784 R0
SYMATTR InstName C4
SYMATTR Value 33p
SYMBOL res 368 -128 R0
SYMATTR InstName R3
SYMATTR Value {rltpe}
SYMBOL pnp 128 -752 M180
WINDOW 0 77 84 Left 2
WINDOW 3 75 52 Left 2
SYMATTR InstName Q6
SYMATTR Value 2SA1381F
SYMBOL res 176 -992 R0
SYMATTR InstName R10
SYMATTR Value {rltpcs}
SYMBOL zener -208 -912 M180
WINDOW 0 24 64 Left 2
WINDOW 3 24 0 Left 2
SYMATTR InstName D8
SYMATTR Value 1N750
SYMATTR Description Diode
SYMATTR Type diode
SYMBOL npn 544 -560 M0
SYMATTR InstName Q1
SYMATTR Value CA_BC550C
SYMBOL npn 224 -560 R0
SYMATTR InstName Q2
SYMATTR Value CA_BC550C
SYMBOL npn 416 400 R0
SYMATTR InstName Q8
SYMATTR Value 2SC3503F
SYMBOL zener -208 624 M180
WINDOW 0 24 64 Left 2
WINDOW 3 24 0 Left 2
SYMATTR InstName D11
SYMATTR Value 1N750
SYMATTR Description Diode
SYMATTR Type diode
SYMBOL res -208 -624 R0
SYMATTR InstName R2
SYMATTR Value 10k
SYMBOL res 464 528 R0
SYMATTR InstName R7
SYMATTR Value {rltpcs}
SYMBOL res 272 -432 R0
SYMATTR InstName R9
SYMATTR Value {rltpe}
SYMBOL res 464 -432 R0
SYMATTR InstName R12
SYMATTR Value {rltpe}
SYMBOL npn -128 400 M0
SYMATTR InstName Q4
SYMATTR Value 2SC3503F
SYMBOL pnp -128 -752 R180
WINDOW 0 77 84 Left 2
WINDOW 3 75 52 Left 2
SYMATTR InstName Q5
SYMATTR Value 2SA1381F
SYMBOL npn 1216 -464 M0
SYMATTR InstName Q10
SYMATTR Value CA_BC550C
SYMBOL pnp 1216 16 R180
WINDOW 0 77 84 Left 2
WINDOW 3 75 52 Left 2
SYMATTR InstName Q12
SYMATTR Value CA_BC560C
SYMBOL res 1232 -336 R0
SYMATTR InstName R8
SYMATTR Value 100
SYMBOL res 1232 -224 R0
SYMATTR InstName R11
SYMATTR Value 100
SYMBOL res 1344 -432 R90
WINDOW 0 0 56 VBottom 2
WINDOW 3 32 56 VTop 2
SYMATTR InstName R13
SYMATTR Value 91
SYMBOL res 1344 -48 R90
WINDOW 0 0 56 VBottom 2
WINDOW 3 32 56 VTop 2
SYMATTR InstName R15
SYMATTR Value 150
TEXT -1344 -656 Left 2 !.param rltpe=200
TEXT 1280 -272 Left 2 ;5W
TEXT 1280 -184 Left 2 ;5W
TEXT -1344 -896 Left 2 !.lib ../spice_root/lib/ONNN_BJT.lib
TEXT -1344 -832 Left 2 !.lib ../spice_root/lib/STM_D.lib
TEXT -1344 -928 Left 2 !.lib ../spice_root/lib/FCS_BJT.lib
TEXT -1344 -864 Left 2 !.lib ../spice_root/lib/ONNN_D.lib
TEXT -1344 -800 Left 2 !.lib ../spice_root/lib/TSE_BJT.lib
TEXT -1344 -560 Left 2 !.param rdrvb=100
TEXT -1344 -768 Left 2 !.lib ../spice_root/lib/VSH_FET.lib
TEXT -1344 -688 Left 2 !.param rltpcs 1k1
TEXT -1344 -624 Left 2 !.param rvase 75
TEXT -1344 -592 Left 2 !.param rvasb 1k
RECTANGLE Normal -544 -736 -1376 -960
RECTANGLE Normal -544 -496 -1376 -720
